 .Sol file Watershed HRU:23 Subbasin:5 HRU:5 Luse:WATR Soil: Fr333ab4494 Slope: 5-9999 9/21/2021 12:00:00 AM ArcSWAT 2012.10_5.21
 Soil Name: Fr333ab4494
 Soil Hydrologic Group: C
 Maximum rooting depth(mm) :  910.00
 Porosity fraction from which anions are excluded: 0.500
 Crack volume potential of soil: 0.500
 Texture 1                : CLAY
 Depth                [mm]:      300.00     1000.00
 Bulk Density Moist [g/cc]:        1.20        1.20
 Ave. AW Incl. Rock Frag  :        0.16        0.16
 Ksat. (est.)      [mm/hr]:       15.31       14.48
 Organic Carbon [weight %]:        1.50        0.50
 Clay           [weight %]:       40.00       49.00
 Silt           [weight %]:       20.00       19.00
 Sand           [weight %]:       40.00       32.00
 Rock Fragments   [vol. %]:        0.00        0.00
 Soil Albedo (Moist)      :        0.03        0.19
 Erosion K                :        0.21        0.21
 Salinity (EC, Form 5)    :        0.00        0.00
 Soil pH                  :        0.00        0.00
 Soil CACO3               :        0.00        0.00
                              
