aquifer.con: written by SWAT+ editor v2.0.4 on 2022-01-28 14:45
      id  name                gis_id          area           lat           lon          elev       aqu               wst       cst      ovfl      rule   out_tot       obj_typ    obj_id       hyd_typ          frac    obj_typ     obj_id       hyd_typ          frac  
       1  aqu10                   10    2226.15000      31.71726     -83.74212     118.53465         1             lrew1         0         0         0         2           sdc          1           tot       1.00000       aqu         2           rhg       1.00000  
       2  aqu_deep01               1    2226.15000      31.71726     -83.74212     118.53465         2             lrew1         0         0         0         1           sdc          1           tot       1.00000  
