chandeg.con: written by SWAT+ editor v2.0.4 on 2022-01-28 14:45
      id  name                gis_id          area           lat           lon          elev      lcha               wst       cst      ovfl      rule   out_tot  
       1  cha1                     1    2225.72000      31.70718     -83.72454             0         1             lrew1         0         0         0         0  
