channel-lte.cha: written by SWAT+ editor v2.0.4 on 2022-01-28 14:45
      id  name                       cha_ini           cha_hyd           cha_sed           cha_nut  
       1  cha1                      initcha1           hydcha1              null           nutcha1  
