codes.bsn: written by SWAT+ editor v2.0.4 on 2022-01-28 14:45
        pet_file           wq_file       pet     event     crack    rtu_wq   sed_det   rte_cha   deg_cha    wq_cha  nostress        cn    c_fact    carbon   baseflo      uhyd   sed_cha  tiledrain    wtable    soil_p  abstr_init          atmo_dep  stor_max  headwater  
            null              null         1         0         0         1         0         0         0         1         0         0         0         0         0         1         0         0         0         0         0                 a         0         0  
