fertilizer.frt: written by SWAT+ editor v2.0.4 on 2022-01-28 14:45
name                     min_n         min_p         org_n         org_p         nh3_n         pathogens  description
elem_n                 1.00000       0.00000       0.00000       0.00000       0.00000              null  ElementalNitrogen
elem_p                 0.00000       1.00000       0.00000       0.00000       0.00000              null  ElementalPhosphorous
p                      0.00000       1.00000       0.00000       0.00000       0.00000              null  ElementalPhosphorous
anh_nh3                0.82000       0.00000       0.00000       0.00000       1.00000              null  AnhydrousAmmonia
urea                   0.46000       0.00000       0.00000       0.00000       1.00000              null  Urea
46_00_00               0.46000       0.00000       0.00000       0.00000       0.00000              null  46_00_00
33_00_00               0.33000       0.00000       0.00000       0.00000       0.00000              null  33_00_00
31_13_00               0.31000       0.05700       0.00000       0.00000       0.00000              null  31_13_00
30_80_00               0.30000       0.35200       0.00000       0.00000       0.00000              null  30_80_00
30_15_00               0.30000       0.06600       0.00000       0.00000       0.00000              null  30_15_00
28_10_10               0.28000       0.04400       0.00000       0.00000       0.00000              null  28_10_10
28_03_00               0.28000       0.01300       0.00000       0.00000       0.00000              null  28_03_00
26_13_00               0.26000       0.05700       0.00000       0.00000       0.00000              null  26_13_00
25_05_00               0.25000       0.02200       0.00000       0.00000       0.00000              null  25_05_00
25_03_00               0.25000       0.01300       0.00000       0.00000       0.00000              null  25_03_00
24_06_00               0.24000       0.02600       0.00000       0.00000       0.00000              null  24_06_00
22_14_00               0.22000       0.06200       0.00000       0.00000       0.00000              null  22_14_00
20_20_00               0.20000       0.08800       0.00000       0.00000       0.00000              null  20_20_00
18_46_00               0.18000       0.20200       0.00000       0.00000       0.00000              null  18_46_00
18_04_00               0.18000       0.01800       0.00000       0.00000       0.00000              null  18_04_00
16_20_20               0.16000       0.08800       0.00000       0.00000       0.00000              null  16_20_20
15_15_15               0.15000       0.06600       0.00000       0.00000       0.00000              null  15_15_15
15_15_00               0.15000       0.06600       0.00000       0.00000       0.00000              null  15_15_00
13_13_13               0.13000       0.05700       0.00000       0.00000       0.00000              null  13_13_13
12_20_00               0.12000       0.08800       0.00000       0.00000       0.00000              null  12_20_00
11_52_00               0.11000       0.22900       0.00000       0.00000       0.00000              null  11_52_00
11_15_00               0.11000       0.06600       0.00000       0.00000       0.00000              null  11_15_00
10_34_00               0.10000       0.15000       0.00000       0.00000       0.00000              null  10_34_00
10_28_00               0.10000       0.12300       0.00000       0.00000       0.00000              null  10_28_00
10_20_20               0.10000       0.08800       0.00000       0.00000       0.00000              null  10_20_20
10_10_10               0.10000       0.44000       0.00000       0.00000       0.00000              null  10_10_10
08_15_00               0.08000       0.06600       0.00000       0.00000       0.00000              null  08_15_00
08_08_00               0.08000       0.03500       0.00000       0.00000       0.00000              null  08_08_00
07_07_00               0.07000       0.03100       0.00000       0.00000       0.00000              null  07_07_00
07_00_00               0.07000       0.00000       0.00000       0.00000       0.00000              null  07_00_00
06_24_24               0.06000       0.10600       0.00000       0.00000       0.00000              null  06_24_24
05_10_15               0.05000       0.04400       0.00000       0.00000       0.00000              null  05_10_15
05_10_10               0.05000       0.04400       0.00000       0.00000       0.00000              null  05_10_10
05_10_05               0.05000       0.04400       0.00000       0.00000       0.00000              null  05_10_05
04_08_00               0.04000       0.03500       0.00000       0.00000       0.00000              null  04_08_00
03_06_00               0.03000       0.02600       0.00000       0.00000       0.00000              null  03_06_00
02_09_00               0.02000       0.04000       0.00000       0.00000       0.00000              null  02_09_00
00_15_00               0.00000       0.06600       0.00000       0.00000       0.00000              null  00_15_00
00_06_00               0.00000       0.02600       0.00000       0.00000       0.00000              null  00_06_00
dairy_fr               0.00700       0.00500       0.03100       0.00300       0.99000              null  Dairy_FreshManure
beef_fr                0.01000       0.00400       0.03000       0.00700       0.99000      fresh_manure  Beef_FreshManure
veal_fr                0.02300       0.00600       0.02900       0.00700       0.99000      fresh_manure  Veal_FreshManure
swine_fr               0.02600       0.01100       0.02100       0.00500       0.99000      fresh_manure  Swine_FreshManure
sheep_fr               0.01400       0.00300       0.02400       0.00500       0.99000      fresh_manure  Sheep_FreshManure
goat_fr                0.01300       0.00300       0.02200       0.00500       0.99000      fresh_manure  Goat_FreshManure
horse_fr               0.00600       0.00100       0.01400       0.00300       0.99000      fresh_manure  Horse_FreshManure
layer_fr               0.01300       0.00600       0.04000       0.01300       0.99000      fresh_manure  Layer_FreshManure
broil_fr               0.01000       0.00400       0.04000       0.01000       0.99000      fresh_manure  Broiler_FreshManure
trkey_fr               0.00700       0.00300       0.04500       0.01600       0.99000      fresh_manure  Turkey_FreshManure
duck_fr                0.02300       0.00800       0.02500       0.00900       0.99000      fresh_manure  Duck_FreshManure
ceap_p_n               0.42000       0.00000       0.58000       0.00000       0.39200       ceap_manure  Ceap_Manure_N_Fr_Past
ceap_p_p               0.00000       0.65000       0.00000       0.35000       0.00000       ceap_manure  Ceap_Manure_P_Fr_Past
ceap_h_n               0.41000       0.00000       0.59000       0.00000       0.38100       ceap_manure  Ceap_Manure_N_Fr_Hay
ceap_h_p               0.00000       0.65300       0.00000       0.34700       0.00000       ceap_manure  Ceap_Manure_P_Fr_Hay
