field.fld: written by SWAT+ editor v2.0.4 on 2022-01-28 14:45
name                       len            wd           ang  
fld10                500.00000     100.00000      30.00000  
