grassedww.str: written by SWAT+ editor v2.0.4 on 2022-01-28 14:45
name                  flag          mann        sed_co            dp            wd           len           slp  description
grwway_high              0       0.05000       0.02000       1.00000       4.00000       0.50000       0.10000  Slope_>8
grwway_med               0       0.05000       0.02000       0.75000       3.00000       0.75000       0.03500  Slope_2-5
grwway_low               0       0.05000       0.02000       0.50000       2.00000       1.00000       0.01000  Slope_0-2
