hmd.cli: Relative humidity file names - file written by SWAT+ editor 2022-01-28 14:30:31.665885
filename
lrew_hmd.hmd
