hru.con: written by SWAT+ editor v2.0.4 on 2022-01-28 14:45
      id  name                gis_id          area           lat           lon          elev       hru               wst       cst      ovfl      rule   out_tot  
       1  hru01                    1     112.23058      31.72087     -83.74786     131.29101         1             lrew1         0         0         0         0  
       2  hru02                    2       4.94311      31.73332     -83.76737     135.50810         2             lrew1         0         0         0         0  
       3  hru03                    3       7.81491      31.70769     -83.71963     123.99104         3             lrew1         0         0         0         0  
       4  hru04                    4     187.47790      31.72105     -83.75162     133.66343         4             lrew1         0         0         0         0  
       5  hru05                    5       3.53222      31.70720     -83.74764     128.44759         5             lrew1         0         0         0         0  
       6  hru06                    6       2.35148      31.70614     -83.75372     128.11915         6             lrew1         0         0         0         0  
       7  hru07                    7       3.92247      31.69825     -83.72509     114.76531         7             lrew1         0         0         0         0  
       8  hru08                    8     270.20993      31.72153     -83.74227     132.07984         8             lrew1         0         0         0         0  
       9  hru09                    9       4.38276      31.70094     -83.73093     119.03425         9             lrew1         0         0         0         0  
      10  hru10                   10       2.10132      31.70504     -83.75509     133.17619        10             lrew1         0         0         0         0  
      11  hru11                   11     333.34964      31.71621     -83.73793     126.58423        11             lrew1         0         0         0         0  
      12  hru12                   12      54.15406      31.72170     -83.74608     126.02125        12             lrew1         0         0         0         0  
      13  hru13                   13      23.90503      31.70396     -83.73015     118.51319        13             lrew1         0         0         0         0  
      14  hru14                   14      46.09899      31.71237     -83.74504     126.29151        14             lrew1         0         0         0         0  
      15  hru15                   15       6.23392      31.72053     -83.74519     120.86196        15             lrew1         0         0         0         0  
      16  hru16                   16      15.47974      31.71869     -83.73796     127.80155        16             lrew1         0         0         0         0  
      17  hru17                   17       0.03002      31.71122     -83.74303     118.00000        17             lrew1         0         0         0         0  
      18  hru18                   18      10.35651      31.70265     -83.75276     134.65507        18             lrew1         0         0         0         0  
      19  hru19                   19     123.57772      31.71997     -83.73644     129.81012        19             lrew1         0         0         0         0  
      20  hru20                   20       7.11447      31.70072     -83.71976     114.09283        20             lrew1         0         0         0         0  
      21  hru21                   21      21.38345      31.70025     -83.71396     113.49977        21             lrew1         0         0         0         0  
      22  hru22                   22      12.41781      31.70297     -83.74825     132.68493        22             lrew1         0         0         0         0  
      23  hru23                   23     214.94518      31.71503     -83.74030     122.59918        23             lrew1         0         0         0         0  
      24  hru24                   24      40.76564      31.72335     -83.74145     127.23785        24             lrew1         0         0         0         0  
      25  hru25                   25       2.92184      31.73431     -83.75724     128.25000        25             lrew1         0         0         0         0  
      26  hru26                   26     169.92687      31.71120     -83.73448     115.58138        26             lrew1         0         0         0         0  
      27  hru27                   27       3.34210      31.71795     -83.74123     120.76347        27             lrew1         0         0         0         0  
      28  hru28                   28       2.16136      31.71786     -83.75891     125.69907        28             lrew1         0         0         0         0  
      29  hru29                   29       0.01001      31.70951     -83.72146     124.00000        29             lrew1         0         0         0         0  
      30  hru30                   30       4.80302      31.69889     -83.73696     123.54375        30             lrew1         0         0         0         0  
      31  hru31                   31     374.38545      31.71819     -83.74724     129.01625        31             lrew1         0         0         0         0  
      32  hru32                   32      11.51724      31.72150     -83.75015     123.90356        32             lrew1         0         0         0         0  
      33  hru33                   33      22.78433      31.72059     -83.74713     125.72947        33             lrew1         0         0         0         0  
      34  hru34                   34      13.58855      31.71771     -83.74565     122.24890        34             lrew1         0         0         0         0  
      35  hru35                   35      20.97319      31.69819     -83.71025     113.05534        35             lrew1         0         0         0         0  
      36  hru36                   36       2.68169      31.70224     -83.71909     114.80597        36             lrew1         0         0         0         0  
      37  hru37                   37       0.88055      31.70610     -83.75562     132.98864        37             lrew1         0         0         0         0  
      38  hru38                   38      66.64191      31.72431     -83.75188     124.92958        38             lrew1         0         0         0         0  
      39  hru39                   39       6.70422      31.71950     -83.75874     125.44627        39             lrew1         0         0         0         0  
      40  hru40                   40       1.08068      31.71839     -83.73449     128.79630        40             lrew1         0         0         0         0  
      41  hru41                   41       7.73486      31.70602     -83.72615     128.43338        41             lrew1         0         0         0         0  
      42  hru42                   42       2.15135      31.70244     -83.72285     119.62326        42             lrew1         0         0         0         0  
      43  hru43                   43       2.25142      31.71627     -83.73028     126.88889        43             lrew1         0         0         0         0  
      44  hru44                   44       0.02001      31.71474     -83.73070     125.50000        44             lrew1         0         0         0         0  
      45  hru45                   45       0.35022      31.69875     -83.71825     111.91429        45             lrew1         0         0         0         0  
      46  hru46                   46       0.46029      31.69624     -83.72259     116.82609        46             lrew1         0         0         0         0  
