hyd-sed-lte.cha: written by SWAT+ editor v2.0.4 on 2022-01-28 14:45
name                         order            wd            dp           slp           len          mann             k     erod_fact      cov_fact        wd_rto        eq_slp           d50          clay        carbon        dry_bd      side_slp      bed_load        t_conc     shear_bnk       hc_erod         hc_ht        hc_len  description
hydcha1                          1       8.29988       0.44971       0.00159       7.85340       0.05000       1.00000       0.01000       0.00500      18.45612       0.00100      12.00000      50.00000       0.04000       1.00000       0.50000       0.50000      10.00000       0.75000       0.10000       0.30000       0.30000  
