hydrology.hyd: written by SWAT+ editor v2.0.4 on 2022-01-28 14:45
name                 lat_ttime       lat_sed       can_max          esco          epco   orgn_enrich   orgp_enrich       cn3_swf       bio_mix         perco      lat_orgn      lat_orgp      harg_pet       latq_co  
hyd01                  0.00000       0.00000       1.00000       0.95000       1.00000       0.00000       0.00000       0.95000       0.20000       0.90000       0.00000       0.00000       0.00000       0.01000  
hyd02                  0.00000       0.00000       1.00000       0.95000       1.00000       0.00000       0.00000       0.95000       0.20000       0.90000       0.00000       0.00000       0.00000       0.01000  
hyd03                  0.00000       0.00000       1.00000       0.95000       1.00000       0.00000       0.00000       0.95000       0.20000       0.50000       0.00000       0.00000       0.00000       0.01000  
hyd04                  0.00000       0.00000       1.00000       0.95000       1.00000       0.00000       0.00000       0.95000       0.20000       0.90000       0.00000       0.00000       0.00000       0.01000  
hyd05                  0.00000       0.00000       1.00000       0.95000       1.00000       0.00000       0.00000       0.95000       0.20000       0.90000       0.00000       0.00000       0.00000       0.01000  
hyd06                  0.00000       0.00000       1.00000       0.95000       1.00000       0.00000       0.00000       0.95000       0.20000       0.90000       0.00000       0.00000       0.00000       0.01000  
hyd07                  0.00000       0.00000       1.00000       0.95000       1.00000       0.00000       0.00000       0.95000       0.20000       0.50000       0.00000       0.00000       0.00000       0.01000  
hyd08                  0.00000       0.00000       1.00000       0.95000       1.00000       0.00000       0.00000       0.95000       0.20000       0.90000       0.00000       0.00000       0.00000       0.01000  
hyd09                  0.00000       0.00000       1.00000       0.95000       1.00000       0.00000       0.00000       0.95000       0.20000       0.90000       0.00000       0.00000       0.00000       0.01000  
hyd10                  0.00000       0.00000       1.00000       0.95000       1.00000       0.00000       0.00000       0.95000       0.20000       0.90000       0.00000       0.00000       0.00000       0.01000  
hyd11                  0.00000       0.00000       1.00000       0.95000       1.00000       0.00000       0.00000       0.95000       0.20000       0.90000       0.00000       0.00000       0.00000       0.01000  
hyd12                  0.00000       0.00000       1.00000       0.95000       1.00000       0.00000       0.00000       0.95000       0.20000       0.05000       0.00000       0.00000       0.00000       0.01000  
hyd13                  0.00000       0.00000       1.00000       0.95000       1.00000       0.00000       0.00000       0.95000       0.20000       0.90000       0.00000       0.00000       0.00000       0.01000  
hyd14                  0.00000       0.00000       1.00000       0.95000       1.00000       0.00000       0.00000       0.95000       0.20000       0.90000       0.00000       0.00000       0.00000       0.01000  
hyd15                  0.00000       0.00000       1.00000       0.95000       1.00000       0.00000       0.00000       0.95000       0.20000       0.50000       0.00000       0.00000       0.00000       0.01000  
hyd16                  0.00000       0.00000       1.00000       0.95000       1.00000       0.00000       0.00000       0.95000       0.20000       0.50000       0.00000       0.00000       0.00000       0.01000  
hyd17                  0.00000       0.00000       1.00000       0.95000       1.00000       0.00000       0.00000       0.95000       0.20000       0.90000       0.00000       0.00000       0.00000       0.01000  
hyd18                  0.00000       0.00000       1.00000       0.95000       1.00000       0.00000       0.00000       0.95000       0.20000       0.90000       0.00000       0.00000       0.00000       0.01000  
hyd19                  0.00000       0.00000       1.00000       0.95000       1.00000       0.00000       0.00000       0.95000       0.20000       0.90000       0.00000       0.00000       0.00000       0.01000  
hyd20                  0.00000       0.00000       1.00000       0.95000       1.00000       0.00000       0.00000       0.95000       0.20000       0.90000       0.00000       0.00000       0.00000       0.01000  
hyd21                  0.00000       0.00000       1.00000       0.95000       1.00000       0.00000       0.00000       0.95000       0.20000       0.05000       0.00000       0.00000       0.00000       0.01000  
hyd22                  0.00000       0.00000       1.00000       0.95000       1.00000       0.00000       0.00000       0.95000       0.20000       0.90000       0.00000       0.00000       0.00000       0.01000  
hyd23                  0.00000       0.00000       1.00000       0.95000       1.00000       0.00000       0.00000       0.95000       0.20000       0.05000       0.00000       0.00000       0.00000       0.01000  
hyd24                  0.00000       0.00000       1.00000       0.95000       1.00000       0.00000       0.00000       0.95000       0.20000       0.90000       0.00000       0.00000       0.00000       0.01000  
hyd25                  0.00000       0.00000       1.00000       0.95000       1.00000       0.00000       0.00000       0.95000       0.20000       0.05000       0.00000       0.00000       0.00000       0.01000  
hyd26                  0.00000       0.00000       1.00000       0.95000       1.00000       0.00000       0.00000       0.95000       0.20000       0.90000       0.00000       0.00000       0.00000       0.01000  
hyd27                  0.00000       0.00000       1.00000       0.95000       1.00000       0.00000       0.00000       0.95000       0.20000       0.90000       0.00000       0.00000       0.00000       0.01000  
hyd28                  0.00000       0.00000       1.00000       0.95000       1.00000       0.00000       0.00000       0.95000       0.20000       0.50000       0.00000       0.00000       0.00000       0.01000  
hyd29                  0.00000       0.00000       1.00000       0.95000       1.00000       0.00000       0.00000       0.95000       0.20000       0.90000       0.00000       0.00000       0.00000       0.01000  
hyd30                  0.00000       0.00000       1.00000       0.95000       1.00000       0.00000       0.00000       0.95000       0.20000       0.50000       0.00000       0.00000       0.00000       0.01000  
hyd31                  0.00000       0.00000       1.00000       0.95000       1.00000       0.00000       0.00000       0.95000       0.20000       0.90000       0.00000       0.00000       0.00000       0.01000  
hyd32                  0.00000       0.00000       1.00000       0.95000       1.00000       0.00000       0.00000       0.95000       0.20000       0.05000       0.00000       0.00000       0.00000       0.01000  
hyd33                  0.00000       0.00000       1.00000       0.95000       1.00000       0.00000       0.00000       0.95000       0.20000       0.90000       0.00000       0.00000       0.00000       0.01000  
hyd34                  0.00000       0.00000       1.00000       0.95000       1.00000       0.00000       0.00000       0.95000       0.20000       0.50000       0.00000       0.00000       0.00000       0.01000  
hyd35                  0.00000       0.00000       1.00000       0.95000       1.00000       0.00000       0.00000       0.95000       0.20000       0.90000       0.00000       0.00000       0.00000       0.01000  
hyd36                  0.00000       0.00000       1.00000       0.95000       1.00000       0.00000       0.00000       0.95000       0.20000       0.90000       0.00000       0.00000       0.00000       0.01000  
hyd37                  0.00000       0.00000       1.00000       0.95000       1.00000       0.00000       0.00000       0.95000       0.20000       0.90000       0.00000       0.00000       0.00000       0.01000  
hyd38                  0.00000       0.00000       1.00000       0.95000       1.00000       0.00000       0.00000       0.95000       0.20000       0.05000       0.00000       0.00000       0.00000       0.01000  
hyd39                  0.00000       0.00000       1.00000       0.95000       1.00000       0.00000       0.00000       0.95000       0.20000       0.05000       0.00000       0.00000       0.00000       0.01000  
hyd40                  0.00000       0.00000       1.00000       0.95000       1.00000       0.00000       0.00000       0.95000       0.20000       0.90000       0.00000       0.00000       0.00000       0.01000  
hyd41                  0.00000       0.00000       1.00000       0.95000       1.00000       0.00000       0.00000       0.95000       0.20000       0.90000       0.00000       0.00000       0.00000       0.01000  
hyd42                  0.00000       0.00000       1.00000       0.95000       1.00000       0.00000       0.00000       0.95000       0.20000       0.90000       0.00000       0.00000       0.00000       0.01000  
hyd43                  0.00000       0.00000       1.00000       0.95000       1.00000       0.00000       0.00000       0.95000       0.20000       0.90000       0.00000       0.00000       0.00000       0.01000  
hyd44                  0.00000       0.00000       1.00000       0.95000       1.00000       0.00000       0.00000       0.95000       0.20000       0.05000       0.00000       0.00000       0.00000       0.01000  
hyd45                  0.00000       0.00000       1.00000       0.95000       1.00000       0.00000       0.00000       0.95000       0.20000       0.90000       0.00000       0.00000       0.00000       0.01000  
hyd46                  0.00000       0.00000       1.00000       0.95000       1.00000       0.00000       0.00000       0.95000       0.20000       0.50000       0.00000       0.00000       0.00000       0.01000  
