hydrology.wet: written by SWAT+ editor v2.0.4 on 2022-01-28 14:45
name                    hru_ps         dp_ps        hru_es         dp_es             k          evap   vol_area_co      vol_dp_a      vol_dp_b      hru_frac  
hydwet23               0.10000      20.00000       0.25000     100.00000       0.01000       0.70000       1.00000       1.00000       1.00000       0.50000  
hydwet24               0.10000      20.00000       0.25000     100.00000       0.01000       0.70000       1.00000       1.00000       1.00000       0.50000  
hydwet25               0.10000      20.00000       0.25000     100.00000       0.01000       0.70000       1.00000       1.00000       1.00000       0.50000  
hydwet26               0.10000      20.00000       0.25000     100.00000       0.01000       0.70000       1.00000       1.00000       1.00000       0.50000  
hydwet27               0.10000      20.00000       0.25000     100.00000       0.01000       0.70000       1.00000       1.00000       1.00000       0.50000  
hydwet28               0.10000      20.00000       0.25000     100.00000       0.01000       0.70000       1.00000       1.00000       1.00000       0.50000  
hydwet29               0.10000      20.00000       0.25000     100.00000       0.01000       0.70000       1.00000       1.00000       1.00000       0.50000  
hydwet30               0.10000      20.00000       0.25000     100.00000       0.01000       0.70000       1.00000       1.00000       1.00000       0.50000  
hydwet38               0.10000      20.00000       0.25000     100.00000       0.01000       0.70000       1.00000       1.00000       1.00000       0.50000  
hydwet39               0.10000      20.00000       0.25000     100.00000       0.01000       0.70000       1.00000       1.00000       1.00000       0.50000  
hydwet40               0.10000      20.00000       0.25000     100.00000       0.01000       0.70000       1.00000       1.00000       1.00000       0.50000  
