ls_unit.def: written by SWAT+ editor v2.0.4 on 2022-01-28 14:45
1
      id              name          area  elem_tot  elements  
       1             rtu10    2226.15000         2         1       -46  
