ls_unit.ele: written by SWAT+ editor v2.0.4 on 2022-01-28 14:45
      id  name                   obj_typ  obj_typ_no      bsn_frac      sub_frac      reg_frac  
       1  hru01                      hru           1     5.0415E-2       0.05041       0.00000  
       2  hru02                      hru           2     2.2205E-3       0.00222       0.00000  
       3  hru03                      hru           3     3.5105E-3       0.00351       0.00000  
       4  hru04                      hru           4     8.4216E-2       0.08422       0.00000  
       5  hru05                      hru           5     1.5867E-3       0.00159       0.00000  
       6  hru06                      hru           6     1.0563E-3       0.00106       0.00000  
       7  hru07                      hru           7     1.7620E-3       0.00176       0.00000  
       8  hru08                      hru           8     1.2138E-1       0.12138       0.00000  
       9  hru09                      hru           9     1.9688E-3       0.00197       0.00000  
      10  hru10                      hru          10     9.4393E-4       0.00094       0.00000  
      11  hru11                      hru          11     1.4974E-1       0.14974       0.00000  
      12  hru12                      hru          12     2.4326E-2       0.02433       0.00000  
      13  hru13                      hru          13     1.0738E-2       0.01074       0.00000  
      14  hru14                      hru          14     2.0708E-2       0.02071       0.00000  
      15  hru15                      hru          15     2.8003E-3       0.00280       0.00000  
      16  hru16                      hru          16     6.9536E-3       0.00695       0.00000  
      17  hru17                      hru          17     1.3485E-5       0.00001       0.00000  
      18  hru18                      hru          18     4.6522E-3       0.00465       0.00000  
      19  hru19                      hru          19     5.5512E-2       0.05551       0.00000  
      20  hru20                      hru          20     3.1959E-3       0.00320       0.00000  
      21  hru21                      hru          21     9.6056E-3       0.00961       0.00000  
      22  hru22                      hru          22     5.5782E-3       0.00558       0.00000  
      23  hru23                      hru          23     9.6555E-2       0.09655       0.00000  
      24  hru24                      hru          24     1.8312E-2       0.01831       0.00000  
      25  hru25                      hru          25     1.3125E-3       0.00131       0.00000  
      26  hru26                      hru          26     7.6332E-2       0.07633       0.00000  
      27  hru27                      hru          27     1.5013E-3       0.00150       0.00000  
      28  hru28                      hru          28     9.7090E-4       0.00097       0.00000  
      29  hru29                      hru          29     4.4949E-6       0.00000       0.00000  
      30  hru30                      hru          30     2.1575E-3       0.00216       0.00000  
      31  hru31                      hru          31     1.6818E-1       0.16818       0.00000  
      32  hru32                      hru          32     5.1736E-3       0.00517       0.00000  
      33  hru33                      hru          33     1.0235E-2       0.01023       0.00000  
      34  hru34                      hru          34     6.1041E-3       0.00610       0.00000  
      35  hru35                      hru          35     9.4213E-3       0.00942       0.00000  
      36  hru36                      hru          36     1.2046E-3       0.00120       0.00000  
      37  hru37                      hru          37     3.9555E-4       0.00040       0.00000  
      38  hru38                      hru          38     2.9936E-2       0.02994       0.00000  
      39  hru39                      hru          39     3.0116E-3       0.00301       0.00000  
      40  hru40                      hru          40     4.8545E-4       0.00049       0.00000  
      41  hru41                      hru          41     3.4745E-3       0.00347       0.00000  
      42  hru42                      hru          42     9.6640E-4       0.00097       0.00000  
      43  hru43                      hru          43     1.0113E-3       0.00101       0.00000  
      44  hru44                      hru          44     8.9898E-6       0.00001       0.00000  
      45  hru45                      hru          45     1.5732E-4       0.00016       0.00000  
      46  hru46                      hru          46     2.0676E-4       0.00021       0.00000  
