management.sch: written by SWAT+ editor v1.0.0 on 2018-11-29 16:24
name       numb_ops  numb_auto             op_typ    mon    day    hu_sch     op_data1     op_data2      op_data3  
lrew_ag1        33           0                                                 
                                             till      4      1     0.000     riprsubs     null             0.000
                                             till      4     15     0.000     riprsubs     null             0.000
                                             till      5      1     0.000     fldcult      null             0.000
                                             plnt      5      2     0.000     pnut         null	  	    0.000
	                                     harv     10      1     0.000     pnut  	   peanuts          0.000
	                                     kill     10      1     0.000     pnut         null             0.000
	                                     till      3      1     0.000     riprsubs     null             0.000
	                                     till      3     15     0.000     riprsubs     null             0.000
	                                     till      4      1     0.000     fldcult      null             0.000
	                                     plnt      4      2     0.000     corn         null             0.000
	                                     fert      4      3     0.000     elem-n       broadcast      150.000
	                                     fert      4      3     0.000     elem-p       broadcast       20.000
	                                     harv      9      1     0.000     corn         grain            0.000
	                                     kill      9      1     0.000     corn         null             0.000
	                                     till      3     15     0.000     riprsubs     null             0.000
	                                     till      4      1     0.000     riprsubs     null             0.000
	                                     till      4     15     0.000     riprsubs     null             0.000
	                                     till      5      1     0.000     fldcult      null             0.000
	                                     plnt      5      2     0.000     cots         null             0.000
	                                     fert      5      3     0.000     anh-nh3      inject         160.000
	                                     fert      5      3     0.000     elem-p       broadcast       20.000
	                                     harv     11      1     0.000     cots  	   cotton_strip     0.000
	                                     kill     11      1     0.000     cots         null             0.000
	                                     till      3     15     0.000     riprsubs     null             0.000
	                                     till      4      1     0.000     riprsubs     null             0.000
	                                     till      4     15     0.000     riprsubs     null             0.000
	                                     till      5      1     0.000     fldcult      null             0.000
	                                     plnt      5      2     0.000     cots	       null         0.000
	                                     fert      5      3     0.000     anh-nh3      inject         160.000
	                                     fert      5      3     0.000     elem-p       broadcast       20.000
	                                     harv     11      1     0.000     cots  	   cotton_strip     0.000
	                                     kill     11      1     0.000     cots         null             0.000
	                                     skip      0      0     0.000     null         null             0.000
lrew_ag2        33           0                                               
	                                     till      3      1     0.000     riprsubs     null       	    0.000
	                                     till      3     15     0.000     riprsubs     null       	    0.000
	                                     till      4      1     0.000     fldcult      null       	    0.000
	                                     plnt      4      2     0.000     corn     	   null       	    0.000
	                                     fert      4      3     0.000     elem-n  	   broadcast   	  150.000
	                                     fert      4      3     0.000     elem-p  	   broadcast       20.000
	                                     harv      9      1     0.000     corn	   grain       	    0.000
	                                     kill      9      1     0.000     corn     	   null       	    0.000
	                                     till      3     15     0.000     riprsubs     null       	    0.000
	                                     till      4      1     0.000     riprsubs     null       	    0.000
	                                     till      4     15     0.000     riprsubs     null       	    0.000
	                                     till      5      1     0.000     fldcult      null       	    0.000
	                                     plnt      5      2     0.000     cots     	   null       	    0.000
	                                     fert      4      3     0.000     elem-n  	   broadcast   	  150.000
	                                     fert      4      3     0.000     elem-p  	   broadcast       20.000
	                                     harv     11      1     0.000     cots     	   cotton_strip     0.000
	                                     kill     11      1     0.000     cots     	   null       	    0.000
	                                     till      3     15     0.000     riprsubs     null       	    0.000
	                                     till      4      1     0.000     riprsubs     null       	    0.000
	                                     till      4     15     0.000     riprsubs     null       	    0.000
	                                     till      5      1     0.000     fldcult      null       	    0.000
	                                     plnt      5      2     0.000     cots     	   null       	    0.000
	                                     fert      5      3     0.000     elem-n  	   broadcast   	  150.000
	                                     fert      5      3     0.000     elem-p  	   broadcast       20.000
	                                     harv     11      1     0.000     cots     	   cotton_strip     0.000
	                                     kill     11      1     0.000     cots     	   null       	    0.000
                                             till      4      1     0.000     riprsubs     null       	    0.000
                                             till      4     15     0.000     riprsubs     null       	    0.000
                                             till      5      1     0.000     fldcult      null       	    0.000
                                             plnt      5      2     0.000     pnut         null       	    0.000
	                                     harv     10      1     0.000     pnut         peanuts     	    0.000
	                                     kill     10      1     0.000     pnut     	   null       	    0.000
	                                     skip      0      0     0.000     null     	   null       	    0.000
lrew_ag3        33           0                                                
	                                     till      3     15     0.000     riprsubs     null       	    0.000
	                                     till      4      1     0.000     riprsubs     null       	    0.000
	                                     till      4     15     0.000     riprsubs     null       	    0.000
	                                     till      5      1     0.000     fldcult      null       	    0.000
	                                     plnt      5      2     0.000     cots     	   null       	    0.000
	                                     fert      5      3     0.000     elem-n  	   broadcast   	  150.000
	                                     fert      5      3     0.000     elem-p  	   broadcast       20.000
	                                     harv     11      1     0.000     cots     	   cotton_strip     0.000
	                                     kill     11      1     0.000     cots     	   null       	    0.000
	                                     till      3     15     0.000     riprsubs     null       	    0.000
	                                     till      4      1     0.000     riprsubs     null       	    0.000
	                                     till      4     15     0.000     riprsubs     null       	    0.000
	                                     till      5      1     0.000     fldcult      null       	    0.000
	                                     plnt      5      2     0.000     cots     	   null       	    0.000
	                                     fert      5      3     0.000     elem-n  	   broadcast   	  150.000
	                                     fert      5      3     0.000     elem-p  	   broadcast       20.000
	                                     harv     11      1     0.000     cots     	   cotton_strip     0.000
	                                     kill     11      1     0.000     cots     	   null       	    0.000
                                             till      4      1     0.000     riprsubs     null       	    0.000
                                             till      4     15     0.000     riprsubs     null       	    0.000
                                             till      5      1     0.000     fldcult      null       	    0.000
                                             plnt      5      2     0.000     pnut     	   null       	    0.000
	                                     harv     10      1     0.000     pnut     	   peanuts     	    0.000
	                                     kill     10      1     0.000     pnut     	   null       	    0.000
	                                     till      3      1     0.000     riprsubs     null       	    0.000
	                                     till      3     15     0.000     riprsubs     null       	    0.000
	                                     till      4      1     0.000     fldcult      null       	    0.000
	                                     plnt      4      2     0.000     corn     	   null       	    0.000
	                                     fert      4      3     0.000     elem-n  	   broadcast   	  150.000
	                                     fert      4      3     0.000     elem-p  	   broadcast       20.000
	                                     harv      9      1     0.000     corn     	   grain     	    0.000
	                                     kill      9      1     0.000     corn     	   null       	    0.000
	                                     skip      0      0     0.000     null     	   null       	    0.000
lrew_ag4        33           0                                                
	                                     till      3     15     0.000     riprsubs     null       	    0.000
	                                     till      4      1     0.000     riprsubs     null       	    0.000
	                                     till      4     15     0.000     riprsubs     null       	    0.000
	                                     till      5      1     0.000     fldcult      null       	    0.000
	                                     plnt      5      2     0.000     cots     	   null       	    0.000
	                                     fert      5      3     0.000     elem-n  	   broadcast   	  150.000
	                                     fert      5      3     0.000     elem-p  	   broadcast       20.000
	                                     harv     11      1     0.000     cots     	   cotton_strip     0.000
	                                     kill     11      1     0.000     cots     	   null       	    0.000
                                             till      4      1     0.000     riprsubs     null       	    0.000
                                             till      4     15     0.000     riprsubs     null       	    0.000
                                             till      5      1     0.000     fldcult      null       	    0.000
                                             plnt      5      2     0.000     pnut     	   null       	    0.000
	                                     harv     10      1     0.000     pnut     	   peanuts     	    0.000
	                                     kill     10      1     0.000     pnut     	   null       	    0.000
	                                     till      3      1     0.000     riprsubs     null       	    0.000
	                                     till      3     15     0.000     riprsubs     null       	    0.000
	                                     till      4      1     0.000     fldcult      null       	    0.000
	                                     plnt      4      2     0.000     corn     	   null       	    0.000
	                                     fert      4      3     0.000     elem-n  	   broadcast   	  150.000
	                                     fert      4      3     0.000     elem-p  	   broadcast       20.000
	                                     harv      9      1     0.000     corn         grain     	    0.000
	                                     kill      9      1     0.000     corn     	   null       	    0.000
	                                     till      3     15     0.000     riprsubs     null       	    0.000
	                                     till      4      1     0.000     riprsubs     null       	    0.000
	                                     till      4     15     0.000     riprsubs     null       	    0.000
	                                     till      5      1     0.000     fldcult      null       	    0.000
	                                     plnt      5      2     0.000     cots     	   null       	    0.000
	                                     fert      5      3     0.000     elem-n  	   broadcast      150.000
	                                     fert      5      3     0.000     elem-p  	   broadcast       20.000
	                                     harv     11      1     0.000     cots     	   cotton_strip     0.000
	                                     kill     11      1     0.000     cots     	   null       	    0.000
	                                     skip      0      0     0.000     null     	   null             0.000	
lrew_past        3           0                                         	                       
                                             plnt      3      1     0.000     past         null             0.000
                                             harv     11      1     0.000     past	   hay_cut_low      0.000
                                             skip      0      0     0.000     null         null             0.000
forest           1           0  
                                             skip      0      0     0.000     null         null             0.000  
wetland          1           0  
                                             skip      0      0     0.000     null         null             0.000 
shrub            1           0  
                                             skip      0      0     0.000     null         null             0.000 
no_mgt           0           0  																					