nutrients.cha: written by SWAT+ editor v2.0.4 on 2022-01-28 14:45
name                     plt_n         ptl_p       alg_stl      ben_disp      ben_nh3n      ptln_stl      ptlp_stl       cst_stl       ben_cst    cbn_bod_co        air_rt   cbn_bod_stl       ben_bod      bact_die     cst_decay     nh3n_no2n     no2n_no3n     ptln_nh3n     ptlp_solp    q2e_lt   q2e_alg      chla_alg         alg_n         alg_p   alg_o2_prod   alg_o2_resp       o2_nh3n       o2_no2n      alg_grow      alg_resp       slr_act         lt_co       const_n       const_p     lt_nonalg     alg_shd_l    alg_shd_nl      nh3_pref  description
nutcha1                0.00000       0.00000       1.00000       0.05000       0.50000       0.05000       0.05000       2.50000       2.50000       1.71000      50.00000       0.36000       2.00000       2.00000       1.71000       0.55000       1.10000       0.21000       0.35000         2         2      50.00000       0.08000       0.01500       1.60000       2.00000       3.50000       1.07000       2.00000       2.50000       0.30000       0.75000       0.02000       0.02500       1.00000       0.03000       0.05400       0.50000  
