object.cnt: written by SWAT+ editor v2.0.4 on 2022-01-28 14:45
name                   ls_area      tot_area       obj       hru      lhru       rtu       mfl       aqu       cha       res       rec      exco       dlr       can       pmp       out      lcha     aqu2d       hrd       wro  
lrew_j_1sub         2226.15000    2226.15000        51        46         0         1         0         2         0         0         1         0         0         0         0         0         1         0         0         0  
