pcp.cli: Precipitation file names - file written by SWAT+ editor 2022-01-28 14:30:31.765629
filename
lrew_pcp.pcp
