plant.ini: written by SWAT+ editor v2.0.4 on 2022-01-28 14:45
pcom_name          plt_cnt  rot_yr_ini          plt_name     lc_status      lai_init       bm_init      phu_init      plnt_pop      yrs_init      rsd_init  
agrl4_comm               1         1  
                                                    cots             n       0.00000       0.00000       0.00000       0.00000       0.00000    1000.00000  
agrl2_comm               1         1  
                                                    pnut             n       0.00000       0.00000       0.00000       0.00000       0.00000    1000.00000  
agrl1_comm               1         1  
                                                    cots             n       0.00000       0.00000       0.00000       0.00000       0.00000    1000.00000  
frst_comm                1         1  
                                                    frst             y       2.00000    5000.00000       0.00000       0.00000      30.00000   10000.00000  
agrl3_comm               1         1  
                                                    corn             n       0.00000       0.00000       0.00000       0.00000       0.00000    1000.00000  
wetf_comm                1         1  
                                                    wetf             y       2.00000    5000.00000       0.00000       0.00000      30.00000   10000.00000  
shrb_comm                1         1  
                                                    shrb             n       0.00000    5000.00000       0.00000       0.00000      15.00000   10000.00000  
wetl_comm                1         1  
                                                    wetl             y       2.00000    5000.00000       0.00000       0.00000      15.00000   10000.00000  
past_comm                1         1  
                                                    past             n       0.00000       0.00000       0.00000       0.00000       0.00000    3000.00000  
