plants.plt: written by SWAT+ editor v2.0.4 on 2022-01-28 14:45
name                      plnt_typ          gro_trig       nfix_co      days_mat          bm_e      harv_idx       lai_pot      frac_hu1      lai_max1      frac_hu2      lai_max2   hu_lai_decl     dlai_rate    can_ht_max     rt_dp_max       tmp_opt      tmp_base    frac_n_yld    frac_p_yld     frac_n_em     frac_n_50    frac_n_mat     frac_p_em     frac_p_50    frac_p_mat   harv_idx_ws    usle_c_min     stcon_max           vpd    frac_stcon        ru_vpd        co2_hi       bm_e_hi   plnt_decomp       lai_min   bm_tree_acc       yrs_mat   bm_tree_max        ext_co   leaf_tov_mn   leaf_tov_mx     bm_dieoff     rt_st_beg     rt_st_end     plnt_pop1     frac_lai1     plnt_pop2     frac_lai2   frac_sw_gro      wnd_live      wnd_dead      wnd_flat  description
corn                   warm_annual          temp_gro       0.00000     120.00000      40.00000       0.55000       6.00000       0.15000       0.15000       0.50000       0.95000       0.80000       0.10000       2.50000       2.00000      25.00000       8.00000       0.01750       0.00250       0.04400       0.01640       0.01280       0.00620       0.00230       0.00180       0.30000       0.14000       0.00700       4.00000       0.75000       7.20000     660.00000      45.00000       0.05000       0.00000       0.00000       0.00000       0.00000       0.65000      12.00000       3.00000       0.10000       0.00000       0.00000       0.00000       0.00000       0.00000       0.00000       0.50000       0.00000       0.00000       0.00000  
cots                   warm_annual          temp_gro       0.00000     180.00000      15.00000       0.50000       4.00000       0.15000       0.01000       0.50000       0.95000       0.95000       0.50000       1.00000       2.50000      30.00000      15.00000       0.01400       0.00200       0.05800       0.01920       0.01770       0.00810       0.00270       0.00250       0.40000       0.20000       0.00900       4.00000       0.75000       3.00000     660.00000      19.00000       0.05000       0.00000       0.00000       0.00000       0.00000       0.65000      12.00000       3.00000       0.10000       0.00000       0.00000       0.00000       0.00000       0.00000       0.00000       0.50000       0.00000       0.00000       0.00000  
frst                     perennial          temp_gro       0.00000       0.00000      15.00000       0.76000       5.00000       0.05000       0.05000       0.40000       0.95000       0.99000       1.00000       6.00000       3.50000      30.00000      10.00000       0.00150       0.00030       0.00600       0.00200       0.00150       0.00070       0.00040       0.00030       0.01000       0.00500       0.00200       4.00000       0.75000       8.00000     660.00000      16.00000       0.05000       0.75000       0.30000      50.00000     100.00000       0.65000      12.00000       3.00000       0.10000       0.00000       0.00000       0.00000       0.00000       0.00000       0.00000       0.50000       0.00000       0.00000       0.00000  
past                     perennial          temp_gro       0.00000       0.00000      35.00000       0.90000       4.00000       0.05000       0.05000       0.49000       0.95000       0.99000      10.00000       0.50000       2.00000      25.00000      12.00000       0.02340       0.00330       0.06000       0.02310       0.01340       0.00840       0.00320       0.00190       0.90000       0.00500       0.00500       4.00000       0.75000      10.00000     660.00000      36.00000       0.05000       2.00000       0.30000       2.00000      40.00000       0.65000      12.00000       3.00000       0.10000       0.00000       0.00000       0.00000       0.00000       0.00000       0.00000       0.50000       0.00000       0.00000       0.00000  
pnut              warm_annual_tuber          temp_gro       0.50000     110.00000      20.00000       0.40000       4.00000       0.15000       0.01000       0.50000       0.95000       0.75000       0.50000       0.50000       2.00000      27.00000      14.00000       0.05050       0.00400       0.05240       0.02650       0.02580       0.00740       0.00370       0.00350       0.30000       0.20000       0.00600       4.00000       0.75000       4.00000     660.00000      25.00000       0.05000       0.00000       0.00000       0.00000       0.00000       0.65000      12.00000       3.00000       0.10000       0.00000       0.00000       0.00000       0.00000       0.00000       0.00000       0.50000       0.00000       0.00000       0.00000  
shrb                     perennial          temp_gro       0.00000       0.00000      34.00000       0.90000       2.00000       0.05000       0.10000       0.25000       0.70000       0.35000       1.00000       1.00000       2.00000      25.00000      12.00000       0.01600       0.00220       0.02000       0.01200       0.00500       0.00140       0.00100       0.00070       0.90000       0.00300       0.00500       4.00000       0.75000      10.00000     660.00000      39.00000       0.05000       0.15000      39.00000      61.00000      74.00000      80.00000      12.00000       3.00000       0.00000       0.00000       0.00000       0.00000       0.00000       0.00000       0.00000       0.50000       0.00000       0.00000       0.00000  
wetf                     perennial          temp_gro       0.00000       0.00000      15.00000       0.76000       5.00000       0.05000       0.05000       0.40000       0.95000       0.99000       1.00000       6.00000       3.50000      30.00000      10.00000       0.00150       0.00030       0.00600       0.00200       0.00150       0.00070       0.00040       0.00030       0.01000       0.00100       0.00200       4.00000       0.75000       8.00000     660.00000      16.00000       0.05000       0.75000       0.30000      30.00000     100.00000       0.65000      12.00000       3.00000       0.10000       0.00000       0.00000       0.00000       0.00000       0.00000       0.00000       0.50000       0.00000       0.00000       0.00000  
wetl                     perennial          temp_gro       0.00000       0.00000      47.00000       0.90000       6.00000       0.10000       0.20000       0.20000       0.95000       0.70000       1.00000       2.50000       2.20000      25.00000      12.00000       0.01600       0.00220       0.03500       0.01500       0.00380       0.00140       0.00100       0.00070       0.90000       0.00300       0.00500       4.00000       0.75000       8.50000     660.00000      54.00000       0.05000       0.75000       0.30000      30.00000     100.00000       0.65000      12.00000       3.00000       0.10000       0.00000       0.00000       0.00000       0.00000       0.00000       0.00000       0.50000       0.00000       0.00000       0.00000  
