recall.con: written by SWAT+ editor v2.0.4 on 2022-01-28 14:45
      id  name                gis_id          area           lat           lon          elev       rec               wst       cst      ovfl      rule   out_tot       obj_typ    obj_id       hyd_typ          frac  
       1  pt2                      2       0.00001      31.72430     -83.74729     117.79408         1             lrew1         0         0         0         1           sdc         1           tot       1.00000  
