rout_unit.con: written by SWAT+ editor v2.0.4 on 2022-01-28 14:45
      id  name                gis_id          area           lat           lon          elev       rtu               wst       cst      ovfl      rule   out_tot       obj_typ    obj_id       hyd_typ          frac  
       1  rtu10                   10    2226.15000      31.71726     -83.74212     126.97442         1             lrew1         0         0         0         2           sdc         1           tot       1.00000           aqu         1           rhg       1.00000  
