rout_unit.rtu: written by SWAT+ editor v2.0.4 on 2022-01-28 14:45
      id              name            define               dlr              topo             field  
       1             rtu10             rtu10              null         toportu10             fld10  
