septic.str: written by SWAT+ editor v2.0.4 on 2022-01-28 14:45
name                   typ        yr  operation     residents          area    t_fail       dp_bioz      thk_bioz      cha_dist      sep_dens       bm_dens     bod_decay      bod_conv        fc_lin        fc_exp   fecal_decay      tds_conv          mort          resp       slough1       slough2           nit         denit        p_sorp    p_sorp_max      solp_slp      solp_int  
standard                 1         0         0       2.50000     100.00000        70     500.00000      50.00000       0.50000       1.50000    1000.00000       0.50000       0.32000      30.00000       0.80000       1.30000       0.10000       0.50000       0.16000       0.30000       0.50000       1.50000       0.32000     128.00000     850.00000       0.04000       3.10000  
failing                  1         0         0       2.50000     100.00000         1     500.00000      50.00000       0.50000       1.50000    1000.00000       0.50000       0.32000      30.00000       0.80000       1.30000       0.10000       0.50000       0.16000       0.30000       0.50000       1.50000       0.32000     128.00000     850.00000       0.04000       3.10000  
