septic.sep: written by SWAT+ editor v2.0.4 on 2022-01-28 14:45
name                    q_rate           bod           tss         nh4_n         no3_n         no2_n         org_n         min_p         org_p         fcoli  description
gcon                   0.22700     170.00000      75.00000      42.40000       0.00000       0.00000      10.00000       6.00000       1.00000  10000000.00000  1Generic
gadv                   0.22700      22.00000      14.00000      18.90000       9.60000       0.00000       3.00000       5.10000       0.90000     543.00000  2Generic
cond                   0.22700     170.00000      75.00000      58.00000       0.20000       0.00000      14.00000       9.00000       1.00000  10000000.00000  3Conventional
sas1                   0.22700     170.00000      75.00000      60.00000       0.00000       0.00000      10.00000       8.50000       1.50000  10000000.00000  4Septic
sas2                   0.22700     170.00000      75.00000       0.00000       0.00000       0.00000       0.00000       9.00000       1.00000  10000000.00000  5Septic
sas3                   0.22700     170.00000      80.00000       0.00000      20.00000       0.00000       0.00000       8.50000       1.50000  1000000.00000  6Septic
sas4                   0.22700     100.00000      65.00000       0.00000       0.00000       0.00000       0.00000       8.50000       1.50000  10000000.00000  7Septic
sas5                   0.22700      20.00000      10.00000       2.40000       7.10000       0.00000       0.00000       0.00000       0.00000       0.00000  8Septic
sas6                   0.22700      18.00000      17.00000       5.60000       4.10000       0.00000       1.30000       0.00000       0.00000       0.00000  9Septic
spf1                   0.22700       3.50000       2.00000       0.00000       0.00000       0.00000       0.00000       0.00000       0.00000     360.00000  10Single
spf2                   0.22700       3.20000       9.00000       0.00000       0.00000       0.00000       0.00000       0.00000       0.00000     407.00000  11Single
spf3                   0.22700       4.00000      17.00000       0.00000       0.00000       0.00000       0.00000      12.00000       2.10000     862.00000  12Single
spf4                   0.22700      75.10000      29.10000      10.60000       0.30000       0.00000       4.60000       0.00000       0.00000       0.00000  13Single
rcf1                   0.22700       3.50000       3.50000       0.00000       0.00000       0.00000       0.00000       0.00000       0.00000    2920.00000  14At
rcf2                   0.22700       5.00000       6.50000       0.00000       0.00000       0.00000       0.00000       0.00000       0.00000    3030.00000  15Maryland
rcf3                   0.22700      11.50000      13.50000       5.50000      29.00000       0.00000       0.00000       5.10000       0.90000   57000.00000  16Recirculating
cwt1                   0.22700      26.50000      12.00000       0.00000       0.00000       0.00000       0.00000       0.60000       0.11000     968.00000  17Septic
cwt2                   0.22700      27.00000      15.00000       0.00000       0.00000       0.00000       0.00000       0.00000       0.00000       0.00000  18Municipad
cwt3                   0.22700       0.00000       4.20000       0.86000       0.00000       0.00000       0.00000       0.20400       0.04000      77.00000  19Municipad
cwt4                   0.22700       7.50000      14.00000       3.29000       0.00000       0.00000       0.00000       0.00000       0.00000       0.00000  20Municipal
cwt5                   0.22700       1.70000       9.50000       1.98000       0.00000       0.00000       0.00000       0.00000       0.00000       0.00000  21Municipawetla
bfl1                   0.22700      28.50000      18.50000       0.00000       0.00000       0.00000       0.00000       0.00000       0.00000       0.00000  22Waterloo
bfl2                   0.22700      16.80000       5.00000      10.20000       5.70000       0.00000       0.00000       2.60000       0.45000     945.00000  23Peat
txf1                   0.22700      27.50000      16.00000       0.00000       0.00000       0.00000       0.00000       0.00000       0.00000   50790.00000  24Recirculating
txf2                   0.22700      10.00000       7.50000       0.00000       0.00000       0.00000       0.00000       0.00000       0.00000     505.00000  25Foam
gfl1                   0.22700      25.00000     220.00000      25.00000       0.00000       0.00000      25.00000      10.00000       2.00000  10000000.00000  26Untreated
