slr.cli: Solar radiation file names - file written by SWAT+ editor 2022-01-28 14:30:31.860374
filename
lrew_slr.slr
