soils.sol: written by SWAT+ editor v2.0.4 on 2022-01-28 14:45
name                            nly           hyd_grp        dp_tot    anion_excl      perc_crk  texture                              dp            bd           awc        soil_k        carbon          clay          silt          sand          rock           alb        usle_k            ec         caco3            ph  
LREW06                            4                 B    1650.00000       0.50000       0.50000  LS-SL-SCL-SCL              
                                                                                                                               250.00000       1.43000       0.06000     331.20000       0.43503       5.50000       9.20000      85.30000      13.00000       0.30000       0.15000       0.00000       0.00000       5.30000  
                                                                                                                               380.00000       1.55000       0.10000     331.20000       0.43503      17.50000      15.30000      67.20000      13.00000       0.30000       0.28000       0.00000       0.00000       5.30000  
                                                                                                                               970.00000       1.60000       0.14000      32.40000       0.14501      27.50000      17.40000      55.10000      13.00000       0.30000       0.28000       0.00000       0.00000       5.30000  
                                                                                                                              1650.00000       1.68000       0.12000       9.72000       0.14501      32.50000      14.00000      53.50000      10.00000       0.30000       0.17000       0.00000       0.00000       5.00000  
LREW05                            3                 B    1650.00000       0.50000       0.50000  LS-SL-SCL                  
                                                                                                                               660.00000       1.65000       0.07000     331.20000       0.72506       6.00000       9.10000      84.90000       5.00000       0.30000       0.15000       0.00000       0.00000       5.30000  
                                                                                                                               790.00000       1.50000       0.14000      32.40000       0.14501      18.00000      18.90000      63.10000      10.00000       0.30000       0.20000       0.00000       0.00000       5.30000  
                                                                                                                              1650.00000       1.50000       0.12000       3.24000       0.14501      27.50000      17.40000      55.10000       5.00000       0.30000       0.20000       0.00000       0.00000       5.30000  
LREW08                            3                 C    1650.00000       0.50000       0.50000  SL-SCL-SCL                 
                                                                                                                               100.00000       1.48000       0.11000     100.80000       1.16009      12.50000      19.60000      67.90000       5.00000       0.30000       0.24000       0.00000       0.00000       5.00000  
                                                                                                                               790.00000       1.40000       0.13000      28.80000       0.14501      32.50000      14.00000      53.50000       5.00000       0.30000       0.28000       0.00000       0.00000       5.00000  
                                                                                                                              1650.00000       1.60000       0.12000       7.20000       0.14501      26.50000      17.70000      55.80000      11.00000       0.30000       0.24000       0.00000       0.00000       5.00000  
LREW03                            3                 B    1520.00000       0.50000       0.50000  LS-SCL-SCL                 
                                                                                                                               360.00000       1.45000       0.08000     100.80000       0.14501      10.00000       4.30000      85.70000       5.00000       0.30000       0.15000       0.00000       0.00000       5.30000  
                                                                                                                              1070.00000       1.50000       0.14000      32.40000       0.14501      26.50000      17.70000      55.80000       5.00000       0.30000       0.28000       0.00000       0.00000       5.30000  
                                                                                                                              1520.00000       1.58000       0.10000       9.72000       0.14501      29.00000      17.10000      53.90000       5.00000       0.30000       0.28000       0.00000       0.00000       5.30000  
LREW02                            2                 A    2160.00000       0.50000       0.50000  S-S                        
                                                                                                                              1520.00000       1.50000       0.07000     331.20000       0.43503       5.00000       1.40000      93.60000       6.00000       0.30000       0.10000       0.00000       0.00000       5.30000  
                                                                                                                              2160.00000       1.55000       0.05000     331.20000       0.14501       3.50000       1.50000      95.00000       6.00000       0.30000       0.10000       0.00000       0.00000       5.30000  
LREW10                            3                 D    1780.00000       0.50000       0.50000  LS-SCL-SCL                 
                                                                                                                               710.00000       1.53000       0.07000     331.20000       0.87007       7.00000       9.20000      83.80000       1.00000       0.16000       0.10000       0.00000       0.00000       5.00000  
                                                                                                                              1170.00000       1.60000       0.12000      32.40000       0.14501      22.50000      17.90000      59.60000       2.00000       0.16000       0.24000       0.00000       0.00000       5.00000  
                                                                                                                              1780.00000       1.65000       0.09000       9.72000       0.14501      25.00000      18.00000      57.00000       6.00000       0.16000       0.28000       0.00000       0.00000       5.00000  
LREW09                            3                 C    1650.00000       0.50000       0.50000  LS-SL-SCL                  
                                                                                                                               790.00000       1.53000       0.06000     331.20000       0.87007       7.50000       9.00000      83.50000       3.00000       0.23000       0.10000       0.00000       0.00000       5.30000  
                                                                                                                               940.00000       1.58000       0.12000      32.40000       0.14501      18.00000      16.90000      65.10000       4.00000       0.23000       0.15000       0.00000       0.00000       5.00000  
                                                                                                                              1650.00000       1.60000       0.10000       9.72000       0.14501      22.50000      17.90000      59.60000       4.00000       0.23000       0.10000       0.00000       0.00000       5.00000  
LREW04                            3                 B    1930.00000       0.50000       0.50000  SL-SC-C                    
                                                                                                                               180.00000       1.55000       0.13000     100.80000       0.43503      14.00000      19.20000      66.80000       7.00000       0.30000       0.28000       0.00000       0.00000       4.60000  
                                                                                                                               380.00000       1.60000       0.15000      32.40000       0.14501      35.50000      12.20000      52.30000       7.00000       0.30000       0.32000       0.00000       0.00000       4.60000  
                                                                                                                              1930.00000       1.58000       0.15000       3.24000       0.14501      47.50000      29.20000      23.30000       7.00000       0.30000       0.32000       0.00000       0.00000       4.60000  
LREW12                            1                 D      25.40000       0.50000       0.50000  water                      
                                                                                                                                25.40000       0.00000       0.00000     600.00000       0.00000       0.00000       0.00000       0.00000       0.00000       0.23000       0.00000       0.00000       0.00000       5.00000  
