tiledrain.str: written by SWAT+ editor v2.0.4 on 2022-01-28 14:45
name                        dp          t_fc           lag           rad          dist         drain          pump      lat_ksat  
mw24_1000           1000.00000      24.00000      96.00000     100.00000      30.00000      10.00000       1.00000       2.00000  
