tillage.til: written by SWAT+ editor v2.0.4 on 2022-01-28 14:45
name                   mix_eff        mix_dp         rough      ridge_ht      ridge_sp  description
fallplow               0.95000     150.00000      75.00000       0.00000       0.00000  genericfallplowingoperation
sprgplow               0.50000     125.00000      50.00000       0.00000       0.00000  genericspringplowingoperation
constill               0.25000     100.00000      40.00000       0.00000       0.00000  genericconservationtillage
zerotill               0.05000      25.00000      10.00000       0.00000       0.00000  genericno-tillmixing
duckftc                0.55000     100.00000      15.00000       0.00000       0.00000  duckfootcultivator
fldcult                0.30000     100.00000      20.00000       0.00000       0.00000  fieldcultivator
furowout               0.75000      25.00000      15.00000       0.00000       0.00000  furrow-outcultivator
marker                 0.45000     100.00000      15.00000       0.00000       0.00000  marker(cultivator)
rollcult               0.50000      25.00000      15.00000       0.00000       0.00000  rollingcultivator
rowcult                0.25000      25.00000      15.00000       0.00000       0.00000  rowcultivator
discovat               0.50000      25.00000      15.00000       0.00000       0.00000  discovator
leveler                0.50000      25.00000      15.00000       0.00000       0.00000  leveler
harrow                 0.20000      25.00000      10.00000       0.00000       0.00000  harrow(tines)
culmulch               0.25000      25.00000       5.00000       0.00000       0.00000  culti-mulchroller
culpkpul               0.35000      40.00000       5.00000       0.00000       0.00000  culti-packerpulverizer
landlevl               0.50000      75.00000      15.00000       0.00000       0.00000  landplane-leveler
landall                0.30000     150.00000      15.00000       0.00000       0.00000  landalldo-all
lasrplan               0.30000     150.00000      15.00000       0.00000       0.00000  laserplaner
levpldis               0.75000      25.00000      50.00000       0.00000       0.00000  levee-plow-disc
float                  0.10000      60.00000      10.00000       0.00000       0.00000  float
fldcdscr               0.10000      60.00000      20.00000       0.00000       0.00000  fieldcond(scratcher)
listrmid               0.15000      40.00000      25.00000       0.00000       0.00000  lister(middle-buster)
rollgrov               0.25000      60.00000       0.00000       0.00000       0.00000  rollergroover
rolpkrat               0.05000      40.00000       0.00000       0.00000       0.00000  rollerpackerattachment
rolpkrft               0.35000      40.00000       0.00000       0.00000       0.00000  rollerpackerflatroller
sandfigt               0.70000     100.00000      10.00000       0.00000       0.00000  sand-fighter
seedroll               0.70000     100.00000       0.00000       0.00000       0.00000  seedbedroller
crustbst               0.10000      60.00000      10.00000       0.00000       0.00000  crustbuster
rollhrrw               0.40000      60.00000       5.00000       0.00000       0.00000  rollerharrow
triplek                0.40000     100.00000      25.00000       0.00000       0.00000  triplek
finharrw               0.55000     100.00000       5.00000       0.00000       0.00000  finishingharrow
flexharw               0.20000      25.00000      13.00000       0.00000       0.00000  flex-tineharrowcl
spiketth               0.40000      75.00000      10.00000       0.00000       0.00000  poweredspiketoothharrow
spiktoth               0.25000      25.00000      13.00000       0.00000       0.00000  spiketoothharrow
sprgtoth               0.35000      25.00000      13.00000       0.00000       0.00000  springtoothharrow
soilfins               0.55000      75.00000       5.00000       0.00000       0.00000  soilfinisher
rothoe                 0.10000       5.00000      13.00000       0.00000       0.00000  rotaryhoe
roterra                0.80000       5.00000      10.00000       0.00000       0.00000  roterra
rototill               0.80000       5.00000      13.00000       0.00000       0.00000  roto-tiller
rotbeddr               0.80000     100.00000      40.00000       0.00000       0.00000  rotovator-bedder
rowbuck                0.70000     100.00000      35.00000       0.00000       0.00000  rowbuck
ripper                 0.25000     350.00000      15.00000       0.00000       0.00000  ripper
midbst1r               0.70000     100.00000      35.00000       0.00000       0.00000  middlebuster
rodweedr               0.30000      25.00000      10.00000       0.00000       0.00000  rodweeder
rubwhwpl               0.35000       5.00000       5.00000       0.00000       0.00000  rubber-wheelweedpuller
multiwdr               0.30000      25.00000      10.00000       0.00000       0.00000  multi-weeder
mldboard               0.95000     150.00000      30.00000       0.00000       0.00000  moldboardplow
chisplow               0.30000     150.00000      20.00000       0.00000       0.00000  chiselplow
cchplow                0.50000     150.00000      20.00000       0.00000       0.00000  coulter-chiselplow
diskplow               0.85000     100.00000      50.00000       0.00000       0.00000  diskplow
stubmlch               0.15000      75.00000      20.00000       0.00000       0.00000  stubble-mulchplow
subchplw               0.45000     350.00000      15.00000       0.00000       0.00000  subsoilchiselplow
rowcond                0.50000      25.00000      10.00000       0.00000       0.00000  rowconditioner
hipper                 0.50000     100.00000      30.00000       0.00000       0.00000  hipper
riceroll               0.10000      50.00000       0.00000       0.00000       0.00000  riceroller
paraplow               0.15000     350.00000      25.00000       0.00000       0.00000  paraplow
sbedhipr               0.70000     350.00000      40.00000       0.00000       0.00000  subsoiler-bedderhip-rip
riprsubs               0.25000     350.00000      15.00000       0.00000       0.00000  deepripper-subsoiler
vripper                0.25000     350.00000      25.00000       0.00000       0.00000  v-ripper
bedrollr               0.25000      50.00000       5.00000       0.00000       0.00000  bedroller
bedderd                0.55000     150.00000      35.00000       0.00000       0.00000  bedder(disk)
beddhipr               0.65000     150.00000      35.00000       0.00000       0.00000  bedderdisk-hipper
beddkrow               0.85000     100.00000      40.00000       0.00000       0.00000  bedderdisk-row
bedders                0.55000     150.00000      30.00000       0.00000       0.00000  beddershaper
dskbrmkr               0.55000     150.00000      20.00000       0.00000       0.00000  diskbordermaker
dkchmtil               0.55000     150.00000      25.00000       0.00000       0.00000  diskchisel(mulchtiller)
offsethv               0.70000     100.00000      50.00000       0.00000       0.00000  offsetdis/heavduty
offsetlt               0.55000     100.00000      40.00000       0.00000       0.00000  offsetdis/lghtduty
one-wayt               0.60000     100.00000      50.00000       0.00000       0.00000  one-way(disktiller)
tandempl               0.55000      75.00000      30.00000       0.00000       0.00000  tandemdiskplw
tandemrg               0.60000      75.00000      20.00000       0.00000       0.00000  tandemdiskreg
singldis               0.45000     100.00000      30.00000       0.00000       0.00000  singledisk
pwrmulch               0.70000      50.00000      15.00000       0.00000       0.00000  powermulcher
blade10                0.25000      75.00000      13.00000       0.00000       0.00000  blade10ft
furwdike               0.70000     100.00000      13.00000       0.00000       0.00000  furrowdiker
beetcult               0.25000      25.00000      15.00000       0.00000       0.00000  beetcultivator
cltiweed               0.30000     100.00000      15.00000       0.00000       0.00000  cultiweeder
packer                 0.35000      40.00000       0.00000       0.00000       0.00000  packer
