time.sim: written by SWAT+ editor v2.0.4 on 2022-01-28 14:45
day_start  yrc_start   day_end   yrc_end      step  
       0        2000         0      2012         0  
