tmp.cli: Temperature file names - file written by SWAT+ editor 2022-01-28 14:30:31.956117
filename
lrew_tmp.tmp
