topography.hyd: written by SWAT+ editor v2.0.4 on 2022-01-28 14:45
name                       slp       slp_len       lat_len      dist_cha         depos  
topohru01              0.03493      60.00000      60.00000     121.00000       0.00000  
topohru02              0.01970      90.00000      90.00000     121.00000       0.00000  
topohru03              0.04202      60.00000      60.00000     121.00000       0.00000  
topohru04              0.02967      90.00000      90.00000     121.00000       0.00000  
topohru05              0.02790      90.00000      90.00000     121.00000       0.00000  
topohru06              0.03447      60.00000      60.00000     121.00000       0.00000  
topohru07              0.05975      30.00000      30.00000     121.00000       0.00000  
topohru08              0.03451      60.00000      60.00000     121.00000       0.00000  
topohru09              0.04992      60.00000      60.00000     121.00000       0.00000  
topohru10              0.03285      60.00000      60.00000     121.00000       0.00000  
topohru11              0.04451      60.00000      60.00000     121.00000       0.00000  
topohru12              0.02695      90.00000      90.00000     121.00000       0.00000  
topohru13              0.04879      60.00000      60.00000     121.00000       0.00000  
topohru14              0.04465      60.00000      60.00000     121.00000       0.00000  
topohru15              0.02926      90.00000      90.00000     121.00000       0.00000  
topohru16              0.05216      30.00000      30.00000     121.00000       0.00000  
topohru17              0.02980      90.00000      90.00000     121.00000       0.00000  
topohru18              0.05078      30.00000      30.00000     121.00000       0.00000  
topohru19              0.03200      60.00000      60.00000     121.00000       0.00000  
topohru20              0.02910      90.00000      90.00000     121.00000       0.00000  
topohru21              0.02355      90.00000      90.00000     121.00000       0.00000  
topohru22              0.03439      60.00000      60.00000     121.00000       0.00000  
topohru23              0.03281      60.00000      60.00000     121.00000       0.00000  
topohru24              0.03613      60.00000      60.00000     121.00000       0.00000  
topohru25              0.02592      90.00000      90.00000     121.00000       0.00000  
topohru26              0.02526      90.00000      90.00000     121.00000       0.00000  
topohru27              0.06828      30.00000      30.00000     121.00000       0.00000  
topohru28              0.04211      60.00000      60.00000     121.00000       0.00000  
topohru29              0.01917      90.00000      90.00000     121.00000       0.00000  
topohru30              0.04225      60.00000      60.00000     121.00000       0.00000  
topohru31              0.03831      60.00000      60.00000     121.00000       0.00000  
topohru32              0.04485      60.00000      60.00000     121.00000       0.00000  
topohru33              0.03579      60.00000      60.00000     121.00000       0.00000  
topohru34              0.05226      30.00000      30.00000     121.00000       0.00000  
topohru35              0.04200      60.00000      60.00000     121.00000       0.00000  
topohru36              0.03313      60.00000      60.00000     121.00000       0.00000  
topohru37              0.03833      60.00000      60.00000     121.00000       0.00000  
topohru38              0.02813      90.00000      90.00000     121.00000       0.00000  
topohru39              0.04185      60.00000      60.00000     121.00000       0.00000  
topohru40              0.05058      30.00000      30.00000     121.00000       0.00000  
topohru41              0.04023      60.00000      60.00000     121.00000       0.00000  
topohru42              0.05682      30.00000      30.00000     121.00000       0.00000  
topohru43              0.02900      90.00000      90.00000     121.00000       0.00000  
topohru44              0.02310      90.00000      90.00000     121.00000       0.00000  
topohru45              0.01888      90.00000      90.00000     121.00000       0.00000  
topohru46              0.08239      10.00000      10.00000     121.00000       0.00000  
toportu10              0.03578     121.00000     121.00000     121.00000       0.00000  
