urban.urb: written by SWAT+ editor v2.0.4 on 2022-01-28 14:45
name                  frac_imp   frac_dc_imp      curb_den      urb_wash      dirt_max     t_halfmax     conc_totn     conc_totp     conc_no3n        urb_cn  description
urhd                   0.60000       0.44000       0.24000       0.18000     225.00000       0.75000     550.00000     223.00000       7.20000      98.00000  Residential-High Density
urmd                   0.38000       0.30000       0.24000       0.18000     225.00000       0.75000     550.00000     223.00000       7.20000      98.00000  Residential-Medium Density
urml                   0.20000       0.17000       0.24000       0.18000     225.00000       0.75000     460.00000     196.00000       6.00000      98.00000  Residential-Med/Low Density
urld                   0.12000       0.10000       0.24000       0.18000     225.00000       0.75000     460.00000     196.00000       6.00000      98.00000  Residential-Low Density
ucom                   0.67000       0.62000       0.28000       0.18000     200.00000       1.60000     420.00000     240.00000       5.50000      98.00000  Commercial
uidu                   0.84000       0.79000       0.14000       0.18000     400.00000       2.35000     430.00000     104.00000       5.60000      98.00000  Industrial
utrn                   0.98000       0.95000       0.12000       0.18000     340.00000       3.90000     480.00000     212.00000       6.30000      98.00000  Transportation
uins                   0.51000       0.47000       0.12000       0.18000     340.00000       3.90000     480.00000     212.00000       6.30000      98.00000  Institutional
urbn                   0.38000       0.30000       0.24000       0.18000     225.00000       0.75000     550.00000     223.00000       7.20000      98.00000  Residential
