weather-wgn.cli: written by SWAT+ editor v1.0.0 on 2018-11-29 16:24
gatifton                       31.47000     -83.53000     112.80000        10  
 tmp_max_ave   tmp_min_ave    tmp_max_sd    tmp_min_sd       pcp_ave        pcp_sd      pcp_skew       wet_dry       wet_wet      pcp_days       pcp_hhr       slr_ave       dew_ave       wnd_ave  
    16.12000       3.86000       6.08000       6.12000     104.40000      14.70000       1.26000       0.22000       0.44000       8.74000      26.90000      10.68000       5.47000       2.96000  
    17.53000       4.72000       5.60000       5.66000     102.60000      14.70000       1.26000       0.24000       0.43000       8.59000      23.90000      13.03000       6.23000       3.38000  
    20.88000       8.12000       5.36000       5.27000     116.40000      17.00000       1.82000       0.23000       0.39000       8.49000      30.70000      17.05000       8.11000       3.53000  
    25.48000      12.36000       4.03000       4.17000     104.20000      19.80000       2.85000       0.19000       0.37000       6.95000      33.00000      21.54000      12.07000       3.32000  
    29.35000      16.47000       3.31000       3.12000      90.00000      14.70000       1.16000       0.18000       0.44000       7.54000      59.40000      23.67000      16.31000       2.78000  
    32.08000      20.06000       2.84000       2.14000     115.30000      13.50000       1.00000       0.25000       0.49000       9.87000      42.40000      22.88000      20.06000       2.71000  
    32.71000      21.36000       2.37000       1.41000     143.70000      14.00000       1.43000       0.34000       0.52000      12.85000      32.30000      22.00000      21.80000       2.49000  
    32.68000      21.04000       2.34000       2.51000     126.90000      15.20000       2.20000       0.29000       0.48000      11.10000      47.50000      21.75000      21.59000       2.25000  
    30.89000      19.06000       3.44000       2.88000      91.00000      15.00000       1.95000       0.20000       0.48000       8.33000      37.60000      18.27000      19.77000       2.82000  
    26.43000      12.98000       3.94000       4.69000      50.50000      13.70000       1.17000       0.10000       0.43000       4.63000      24.60000      15.34000      13.93000       2.75000  
    21.11000       7.56000       4.97000       5.59000      54.20000      13.00000       2.50000       0.16000       0.35000       5.93000      19.80000      12.15000       8.72000       2.71000  
    17.03000       4.37000       5.76000       5.82000      91.20000      13.20000       1.21000       0.21000       0.43000       8.35000      15.70000       9.13000       5.39000       2.74000  
