wnd.cli: Wind speed file names - file written by SWAT+ editor 2022-01-28 14:30:32.100731
filename
lrew_wnd.wnd
