 .Sol file Watershed HRU:56 Subbasin:4 HRU:13 Luse:RNGB Soil: B07H8301 Slope: 0-5 1/17/2019 12:00:00 AM ArcSWAT 2012.10_2.19
 Soil Name: B07H8301
 Soil Hydrologic Group: B
 Maximum rooting depth(mm) :  200.00
 Porosity fraction from which anions are excluded: 0.500
 Crack volume potential of soil: 0.000
 Texture 1                : Hh-Ls3
 Depth                [mm]:       90.00     2000.00
 Bulk Density Moist [g/cc]:        1.35        1.55
 Ave. AW Incl. Rock Frag  :        0.55        0.22
 Ksat. (est.)      [mm/hr]:       29.17        3.33
 Organic Carbon [weight %]:       20.00       11.60
 Clay           [weight %]:        1.00       20.00
 Silt           [weight %]:        1.00       35.00
 Sand           [weight %]:        1.00       45.00
 Rock Fragments   [vol. %]:        0.00        1.50
 Soil Albedo (Moist)      :        0.01        0.25
 Erosion K                :        0.26        0.13
 Salinity (EC, Form 5)    :        0.00        0.00
 Soil pH                  :        0.00        0.00
 Soil CACO3               :        0.00        0.00
                              
