 .Wgn file Subbasin: 7 STATION NAME:Sample 9/21/2021 12:00:00 AM ArcSWAT 2012.10_5.21
  LATITUDE =  33.65 LONGITUDE = -95.69
  ELEV [m] = 179.80
  RAIN_YRS =  83.00
 11.90 13.90 18.80 23.60 27.60 32.30 34.80 34.90 31.40 25.70 18.40 13.10
 -0.20  1.60  5.90 11.10 15.70 20.30 22.30 21.90 18.20 11.90  5.60  1.20
  7.36  6.94  6.47  4.74  3.98  3.41  3.27  3.38  4.44  5.32  6.19  6.47
  6.10  5.58  5.59  4.63  3.72  2.76  2.06  2.24  3.96  5.06  5.42  5.51
  66.9  72.3  89.8 120.0 133.2  93.1  81.9  66.4  88.6  87.9  81.3  77.1
 12.70 14.22 14.22 17.78 18.29 19.05 16.51 16.00 22.10 20.32 19.56 16.20
  2.23  2.27  0.91  0.94  1.50  2.78  0.94  1.44  2.27  1.93  2.41  3.00
  0.17  0.18  0.19  0.22  0.21  0.16  0.15  0.13  0.13  0.14  0.13  0.15
  7.12  6.78  7.36  8.15  9.04  6.67  6.20  5.45  5.91  5.86  5.82  6.46
  7.12  6.78  7.36  8.15  9.04  6.67  6.20  5.45  5.91  5.86  5.82  6.46
 16.00 17.53 20.32 27.18 38.35 35.56 34.04 45.21 36.83 25.65 22.86 13.90
  9.42 12.27 16.41 19.40 22.95 25.01 24.50 23.12 19.22 15.54 11.40  9.05
  0.76  2.42  4.85 10.55 16.45 19.86 20.56 20.07 17.15 11.38  5.20  1.66
  4.82  4.74  5.32  5.26  4.55  4.28  3.85  3.75  3.76  4.06  4.45  4.63
