 .Sol file Watershed HRU:14 Subbasin:1 HRU:14 Luse:FRSE Soil: B63H8301 Slope: 0-5 1/17/2019 12:00:00 AM ArcSWAT 2012.10_2.19
 Soil Name: B63H8301
 Soil Hydrologic Group: A
 Maximum rooting depth(mm) :  500.00
 Porosity fraction from which anions are excluded: 0.500
 Crack volume potential of soil: 0.000
 Texture 1                : gS-gS-gS-gS-gS-gS-gS
 Depth                [mm]:       50.00      100.00      200.00      250.00      450.00      650.00     2000.00
 Bulk Density Moist [g/cc]:        1.35        1.55        1.75        1.55        1.55        1.55        1.35
 Ave. AW Incl. Rock Frag  :        0.10        0.07        0.05        0.05        0.05        0.06        0.06
 Ksat. (est.)      [mm/hr]:      250.00      250.00      250.00      250.00      250.00      250.00      250.00
 Organic Carbon [weight %]:        2.90        0.90        1.20        0.60        0.00        0.00        0.00
 Clay           [weight %]:        0.00        0.00        0.00        0.00        0.00        0.00        0.00
 Silt           [weight %]:        5.00        5.00        5.00        5.00        5.00        5.00        5.00
 Sand           [weight %]:       95.00       95.00       95.00       95.00       95.00       95.00       95.00
 Rock Fragments   [vol. %]:        9.00       27.50       27.50       27.50       27.50       27.50       27.50
 Soil Albedo (Moist)      :        0.06        0.25        0.25        0.29        0.30        0.30        0.30
 Erosion K                :        0.20        0.22        0.22        0.22        0.23        0.23        0.23
 Salinity (EC, Form 5)    :        0.00        0.00        0.00        0.00        0.00        0.00        0.00
 Soil pH                  :        0.00        0.00        0.00        0.00        0.00        0.00        0.00
 Soil CACO3               :        0.00        0.00        0.00        0.00        0.00        0.00        0.00
                              
