 .Sol file Watershed HRU:22 Subbasin:2 HRU:6 Luse:PAST Soil: B59H5401 Slope: 5-9999 1/17/2019 12:00:00 AM ArcSWAT 2012.10_2.19
 Soil Name: B59H5401
 Soil Hydrologic Group: B
 Maximum rooting depth(mm) :  600.00
 Porosity fraction from which anions are excluded: 0.500
 Crack volume potential of soil: 0.000
 Texture 1                : Ls2-Lt2-Sl4-Tu3
 Depth                [mm]:      100.00      600.00     1000.00     2000.00
 Bulk Density Moist [g/cc]:        1.35        1.75        1.55        1.75
 Ave. AW Incl. Rock Frag  :        0.16        0.08        0.03        0.02
 Ksat. (est.)      [mm/hr]:        7.08        2.92        6.67        5.00
 Organic Carbon [weight %]:        2.90        0.60        0.00        0.00
 Clay           [weight %]:       25.00       30.00       15.00       35.00
 Silt           [weight %]:       45.00       40.00       25.00       55.00
 Sand           [weight %]:       30.00       30.00       60.00       10.00
 Rock Fragments   [vol. %]:       50.00       50.00       92.50       92.50
 Soil Albedo (Moist)      :        0.06        0.25        0.25        0.29
 Erosion K                :        0.19        0.17        0.21        0.26
 Salinity (EC, Form 5)    :        0.00        0.00        0.00        0.00
 Soil pH                  :        0.00        0.00        0.00        0.00
 Soil CACO3               :        0.00        0.00        0.00        0.00
                              
